@<TRIPOS>MOLECULE
benzene
12 12 0 0 0

@<TRIPOS>ATOM
    1 C                 1.3858  -0.1157   0.0000 C.ar     1 LIG1    -0.1971
    2 C                 0.7931   1.1423   0.0000 C.ar     1 LIG1    -0.1971
    3 C                -0.5927   1.2580  -0.0000 C.ar     1 LIG1    -0.1971
    4 C                -1.3858   0.1157  -0.0000 C.ar     1 LIG1    -0.1971
    5 C                -0.7931  -1.1423  -0.0000 C.ar     1 LIG1    -0.1971
    6 C                 0.5927  -1.2580   0.0000 C.ar     1 LIG1    -0.1971
    7 H                 2.4687  -0.2061   0.0000 H        1 LIG1     0.1971
    8 H                 1.4128   2.0349  -0.0000 H        1 LIG1     0.1971
    9 H                -1.0559   2.2410  -0.0000 H        1 LIG1     0.1971
    10 H                -2.4687   0.2061   0.0000 H        1 LIG1     0.1971
    11 H                -1.4128  -2.0349   0.0000 H        1 LIG1     0.1971
    12 H                 1.0559  -2.2410  -0.0000 H        1 LIG1     0.1971

@<TRIPOS>BOND
    1 1 2 ar
    2 1 6 ar
    3 1 7 1
    4 2 3 ar
    5 2 8 1
    6 3 4 ar
    7 3 9 1
    8 4 5 ar
    9 4 10 1
    10 5 6 ar
    11 5 11 1
    12 6 12 1
